# created with PyMOL 2.4.0a0
@<TRIPOS>MOLECULE
obj01
10 9 1                  
SMALL
USER_CHARGES
@<TRIPOS>ATOM
1	   N	-22.358	8.458	-13.318	N.am	1	ALA23	0.000	
2	  CA	-21.689	7.349	-12.645	C.3	1	ALA23	0.000	
3	   C	-22.426	6.024	-12.868	C.2	1	ALA23	0.000	
4	   O	-21.788	4.978	-13.055	O.2	1	ALA23	0.000	
5	  CB	-21.575	7.658	-11.149	C.3	1	ALA23	0.000	
6	   H	-22.529	9.130	-12.809	 H	1	ALA23	0.000	
7	  HA	-20.792	7.257	-13.002	 H	1	ALA23	0.000	
8	 HB1	-21.129	6.918	-10.708	 H	1	ALA23	0.000	
9	 HB2	-21.059	8.471	-11.034	 H	1	ALA23	0.000	
10	 HB3	-22.465	7.775	-10.783	 H	1	ALA23	0.000	
@<TRIPOS>BOND
1 1 2 1
2 1 6 1
3 2 3 1
4 2 5 1
5 2 7 1
6 3 4 2
7 5 8 1
8 5 9 1
9 5 10 1
@<TRIPOS>SUBSTRUCTURE
1	ALA23	1	RESIDUE	1 B	ALA
