# created with PyMOL 2.4.0a0
@<TRIPOS>MOLECULE
obj06
24 23 1                 
SMALL
USER_CHARGES
@<TRIPOS>ATOM
1	   N	-29.435	-20.775	-12.551	N.am	1	ARG49	0.000	
2	  CA	-28.750	-21.255	-13.733	C.3	1	ARG49	0.000	
3	   C	-27.964	-20.172	-14.433	C.2	1	ARG49	0.000	
4	   O	-27.273	-20.483	-15.417	O.2	1	ARG49	0.000	
5	  CB	-29.779	-21.865	-14.694	C.3	1	ARG49	0.000	
6	  CG	-30.688	-22.887	-14.032	C.3	1	ARG49	0.000	
7	  CD	-30.333	-24.261	-14.473	C.3	1	ARG49	0.000	
8	  NE	-31.129	-25.268	-13.797	N.pl3	1	ARG49	0.000	
9	  CZ	-31.012	-25.567	-12.512	C.cat	1	ARG49	0.000	
10	 NH1	-30.139	-24.909	-11.768	N.pl3	1	ARG49	0.000	
11	 NH2	-31.767	-26.513	-11.967	N.pl3	1	ARG49	0.000	
12	   H	-30.282	-20.699	-12.673	 H	1	ARG49	0.000	
13	  HA	-28.130	-21.955	-13.475	 H	1	ARG49	0.000	
14	 HB2	-30.337	-21.156	-15.049	 H	1	ARG49	0.000	
15	 HB3	-29.309	-22.309	-15.417	 H	1	ARG49	0.000	
16	 HG2	-30.585	-22.836	-13.069	 H	1	ARG49	0.000	
17	 HG3	-31.609	-22.712	-14.284	 H	1	ARG49	0.000	
18	 HD2	-30.491	-24.341	-15.426	 H	1	ARG49	0.000	
19	 HD3	-29.399	-24.429	-14.272	 H	1	ARG49	0.000	
20	  HE	-31.745	-25.664	-14.248	 H	1	ARG49	0.000	
21	1HH1	-29.647	-24.298	-12.121	 H	1	ARG49	0.000	
22	2HH1	-30.060	-25.095	-10.932	 H	1	ARG49	0.000	
23	1HH2	-32.338	-26.939	-12.449	 H	1	ARG49	0.000	
24	2HH2	-31.690	-26.695	-11.130	 H	1	ARG49	0.000	
@<TRIPOS>BOND
1 1 2 1
2 1 12 1
3 2 3 1
4 2 5 1
5 2 13 1
6 3 4 2
7 5 6 1
8 5 14 1
9 5 15 1
10 6 7 1
11 6 16 1
12 6 17 1
13 7 8 1
14 7 18 1
15 7 19 1
16 8 9 1
17 8 20 1
18 9 10 2
19 9 11 1
20 10 21 1
21 10 22 1
22 11 23 1
23 11 24 1
@<TRIPOS>SUBSTRUCTURE
1	ARG49	1	RESIDUE	1 B	ARG
