# created with PyMOL 2.4.0a0
@<TRIPOS>MOLECULE
obj03
14 13 1                 
SMALL
USER_CHARGES
@<TRIPOS>ATOM
1	   N	-20.396	-2.250	-14.612	N.3	1	ASN28	0.000	
2	  CA	-19.356	-3.250	-14.479	C.3	1	ASN28	0.000	
3	   C	-19.775	-4.499	-15.256	C.2	1	ASN28	0.000	
4	   O	-20.807	-5.119	-14.956	O.2	1	ASN28	0.000	
5	  CB	-19.142	-3.514	-12.995	C.3	1	ASN28	0.000	
6	  CG	-17.894	-4.282	-12.723	C.2	1	ASN28	0.000	
7	 ND2	-17.975	-5.181	-11.746	N.pl3	1	ASN28	0.000	
8	 OD1	-16.857	-4.077	-13.369	O.2	1	ASN28	0.000	
9	   H	-20.961	-2.254	-13.964	 H	1	ASN28	0.000	
10	  HA	-18.528	-2.913	-14.856	 H	1	ASN28	0.000	
11	 HB2	-19.081	-2.666	-12.529	 H	1	ASN28	0.000	
12	 HB3	-19.891	-4.028	-12.654	 H	1	ASN28	0.000	
13	1HD2	-17.287	-5.656	-11.541	 H	1	ASN28	0.000	
14	2HD2	-18.715	-5.290	-11.322	 H	1	ASN28	0.000	
@<TRIPOS>BOND
1 1 2 1
2 1 9 1
3 2 3 1
4 2 5 1
5 2 10 1
6 3 4 2
7 5 6 1
8 5 11 1
9 5 12 1
10 6 7 1
11 6 8 2
12 7 13 1
13 7 14 1
@<TRIPOS>SUBSTRUCTURE
1	ASN28	1	RESIDUE	1 B	ASN
