# created with PyMOL 2.4.0a0
@<TRIPOS>MOLECULE
obj05
12 11 1                 
SMALL
USER_CHARGES
@<TRIPOS>ATOM
1	   N	-35.464	-22.846	-17.552	N.am	1	ASP43	0.000	
2	  CA	-34.156	-22.479	-17.075	C.3	1	ASP43	0.000	
3	   C	-33.891	-20.983	-17.236	C.2	1	ASP43	0.000	
4	   O	-33.082	-20.412	-16.495	O.2	1	ASP43	0.000	
5	  CB	-33.129	-23.348	-17.796	C.3	1	ASP43	0.000	
6	  CG	-33.070	-24.762	-17.230	C.2	1	ASP43	0.000	
7	 OD1	-33.983	-25.121	-16.444	O.co2	1	ASP43	0.000	
8	 OD2	-32.105	-25.509	-17.554	O.co2	1	ASP43	0.000	
9	   H	-35.473	-23.463	-18.150	 H	1	ASP43	0.000	
10	  HA	-34.102	-22.686	-16.128	 H	1	ASP43	0.000	
11	 HB2	-33.368	-23.409	-18.734	 H	1	ASP43	0.000	
12	 HB3	-32.251	-22.948	-17.701	 H	1	ASP43	0.000	
@<TRIPOS>BOND
1 1 2 1
2 1 9 1
3 2 3 1
4 2 5 1
5 2 10 1
6 3 4 2
7 5 6 1
8 5 11 1
9 5 12 1
10 6 7 2
11 6 8 1
@<TRIPOS>SUBSTRUCTURE
1	ASP43	1	RESIDUE	1 B	ASP
