# created with PyMOL 2.4.0a0
@<TRIPOS>MOLECULE
obj02
11 10 1                 
SMALL
USER_CHARGES
@<TRIPOS>ATOM
1	   N	-24.774	14.603	-25.039	N.am	1	CYS101	0.000	
2	  CA	-23.525	15.100	-25.713	C.3	1	CYS101	0.000	
3	   C	-22.369	14.115	-26.040	C.2	1	CYS101	0.000	
4	   O	-21.272	14.589	-26.536	O.2	1	CYS101	0.000	
5	  CB	-22.936	16.284	-24.931	C.3	1	CYS101	0.000	
6	  SG	-23.680	17.866	-25.428	S.3	1	CYS101	0.000	
7	   H	-25.388	14.432	-25.617	 H	1	CYS101	0.000	
8	  HA	-23.804	15.462	-26.569	 H	1	CYS101	0.000	
9	 HB2	-23.103	16.155	-23.984	 H	1	CYS101	0.000	
10	 HB3	-21.982	16.333	-25.099	 H	1	CYS101	0.000	
11	  HG	-23.183	18.750	-24.786	 H	1	CYS101	0.000	
@<TRIPOS>BOND
1 1 2 1
2 1 7 1
3 2 3 1
4 2 5 1
5 2 8 1
6 3 4 2
7 5 6 1
8 5 9 1
9 5 10 1
10 6 11 1
@<TRIPOS>SUBSTRUCTURE
1	CYS101	1	RESIDUE	1 B	CYS
