# created with PyMOL 2.4.0a0
@<TRIPOS>MOLECULE
obj01
17 16 1                 
SMALL
USER_CHARGES
@<TRIPOS>ATOM
1	   N	7.840	-40.353	-15.822	N.am	1	GLN318	0.000	
2	  CA	7.888	-40.087	-17.258	C.3	1	GLN318	0.000	
3	   C	7.735	-41.338	-18.102	C.2	1	GLN318	0.000	
4	   O	7.644	-41.216	-19.325	O.2	1	GLN318	0.000	
5	  CB	9.209	-39.401	-17.647	C.3	1	GLN318	0.000	
6	  CG	9.383	-39.071	-19.168	C.3	1	GLN318	0.000	
7	  CD	10.844	-38.831	-19.578	C.2	1	GLN318	0.000	
8	 NE2	11.076	-37.901	-20.548	N.pl3	1	GLN318	0.000	
9	 OE1	11.753	-39.504	-19.051	O.2	1	GLN318	0.000	
10	   H	8.600	-40.249	-15.433	 H	1	GLN318	0.000	
11	  HA	7.163	-39.485	-17.487	 H	1	GLN318	0.000	
12	 HB2	9.273	-38.564	-17.160	 H	1	GLN318	0.000	
13	 HB3	9.942	-39.981	-17.391	 H	1	GLN318	0.000	
14	 HG2	9.045	-39.814	-19.691	 H	1	GLN318	0.000	
15	 HG3	8.880	-38.267	-19.374	 H	1	GLN318	0.000	
16	1HE2	10.420	-37.464	-20.890	 H	1	GLN318	0.000	
17	2HE2	11.881	-37.742	-20.806	 H	1	GLN318	0.000	
@<TRIPOS>BOND
1 1 2 1
2 1 10 1
3 2 3 1
4 2 5 1
5 2 11 1
6 3 4 2
7 5 6 1
8 5 12 1
9 5 13 1
10 6 7 1
11 6 14 1
12 6 15 1
13 7 8 1
14 7 9 2
15 8 16 1
16 8 17 1
@<TRIPOS>SUBSTRUCTURE
1	GLN318	1	RESIDUE	1 B	GLN
