# created with PyMOL 2.4.0a0
@<TRIPOS>MOLECULE
obj14
15 14 1                 
SMALL
USER_CHARGES
@<TRIPOS>ATOM
1	   N	-3.270	-29.014	-37.263	N.am	1	GLU197	0.000	
2	  CA	-3.442	-30.399	-36.820	C.3	1	GLU197	0.000	
3	   C	-2.947	-30.734	-35.427	C.2	1	GLU197	0.000	
4	   O	-3.488	-31.662	-34.827	O.2	1	GLU197	0.000	
5	  CB	-2.722	-31.367	-37.762	C.3	1	GLU197	0.000	
6	  CG	-3.681	-32.297	-38.534	C.3	1	GLU197	0.000	
7	  CD	-3.393	-32.343	-40.055	C.2	1	GLU197	0.000	
8	 OE1	-2.321	-31.836	-40.490	O.co2	1	GLU197	0.000	
9	 OE2	-4.239	-32.867	-40.826	O.co2	1	GLU197	0.000	
10	   H	-3.141	-28.944	-38.110	 H	1	GLU197	0.000	
11	  HA	-4.388	-30.612	-36.850	 H	1	GLU197	0.000	
12	 HB2	-2.215	-30.855	-38.411	 H	1	GLU197	0.000	
13	 HB3	-2.122	-31.924	-37.241	 H	1	GLU197	0.000	
14	 HG2	-3.594	-33.198	-38.187	 H	1	GLU197	0.000	
15	 HG3	-4.590	-31.982	-38.412	 H	1	GLU197	0.000	
@<TRIPOS>BOND
1 1 2 1
2 1 10 1
3 2 3 1
4 2 5 1
5 2 11 1
6 3 4 2
7 5 6 1
8 5 12 1
9 5 13 1
10 6 7 1
11 6 14 1
12 6 15 1
13 7 8 2
14 7 9 1
@<TRIPOS>SUBSTRUCTURE
1	GLU197	1	RESIDUE	1 B	GLU
