# created with PyMOL 2.4.0a0
@<TRIPOS>MOLECULE
obj08
7 6 1                   
SMALL
USER_CHARGES
@<TRIPOS>ATOM
1	   N	-11.428	-3.559	-21.159	N.am	1	GLY61	0.000	
2	  CA	-10.307	-2.890	-20.543	C.3	1	GLY61	0.000	
3	   C	-10.162	-3.144	-19.052	C.2	1	GLY61	0.000	
4	   O	-11.075	-3.616	-18.363	O.2	1	GLY61	0.000	
5	   H	-11.213	-4.281	-21.574	 H	1	GLY61	0.000	
6	 HA2	-9.489	-3.179	-20.977	 H	1	GLY61	0.000	
7	 HA3	-10.396	-1.933	-20.677	 H	1	GLY61	0.000	
@<TRIPOS>BOND
1 1 2 1
2 1 5 1
3 2 3 1
4 2 6 1
5 2 7 1
6 3 4 2
@<TRIPOS>SUBSTRUCTURE
1	GLY61	1	RESIDUE	1 B	GLY
