# created with PyMOL 2.4.0a0
@<TRIPOS>MOLECULE
obj07
17 17 1                 
SMALL
USER_CHARGES
@<TRIPOS>ATOM
1	   N	-11.852	-7.913	-18.909	N.am	1	HIS57	0.000	
2	  CA	-10.948	-6.868	-19.342	C.3	1	HIS57	0.000	
3	   C	-10.615	-7.014	-20.824	C.2	1	HIS57	0.000	
4	   O	-10.595	-6.016	-21.561	O.2	1	HIS57	0.000	
5	  CB	-9.701	-6.921	-18.456	C.3	1	HIS57	0.000	
6	  CG	-8.906	-8.173	-18.617	C.2	1	HIS57	0.000	
7	 CD2	-7.621	-8.375	-18.994	C.2	1	HIS57	0.000	
8	 ND1	-9.442	-9.421	-18.386	N.2	1	HIS57	0.000	
9	 CE1	-8.525	-10.343	-18.624	C.2	1	HIS57	0.000	
10	 NE2	-7.411	-9.735	-18.999	N.pl3	1	HIS57	0.000	
11	   H	-11.544	-8.422	-18.289	 H	1	HIS57	0.000	
12	  HA	-11.374	-6.006	-19.212	 H	1	HIS57	0.000	
13	 HB2	-9.125	-6.173	-18.680	 H	1	HIS57	0.000	
14	 HB3	-9.973	-6.859	-17.527	 H	1	HIS57	0.000	
15	 HD2	-7.003	-7.720	-19.223	 H	1	HIS57	0.000	
16	 HE1	-8.641	-11.262	-18.537	 H	1	HIS57	0.000	
17	 HE2	-6.671	-10.125	-19.196	 H	1	HIS57	0.000	
@<TRIPOS>BOND
1 1 2 1
2 1 11 1
3 2 3 1
4 2 5 1
5 2 12 1
6 3 4 2
7 5 6 1
8 5 13 1
9 5 14 1
10 6 7 2
11 6 8 1
12 7 10 1
13 7 15 1
14 8 9 2
15 9 10 1
16 9 16 1
17 10 17 1
@<TRIPOS>SUBSTRUCTURE
1	HIS57	1	RESIDUE	1 B	HIS
