# created with PyMOL 2.4.0a0
@<TRIPOS>MOLECULE
obj12
19 18 1                 
SMALL
USER_CHARGES
@<TRIPOS>ATOM
1	   N	4.237	-34.562	-20.591	N.am	1	ILE273	0.000	
2	  CA	3.293	-33.469	-20.771	C.3	1	ILE273	0.000	
3	   C	3.745	-32.271	-19.960	C.2	1	ILE273	0.000	
4	   O	4.195	-32.421	-18.822	O.2	1	ILE273	0.000	
5	  CB	1.900	-33.946	-20.310	C.3	1	ILE273	0.000	
6	 CG1	1.788	-35.456	-20.536	C.3	1	ILE273	0.000	
7	 CG2	0.729	-33.106	-20.952	C.3	1	ILE273	0.000	
8	 CD1	0.406	-35.947	-20.797	C.3	1	ILE273	0.000	
9	   H	4.106	-35.005	-19.865	 H	1	ILE273	0.000	
10	  HA	3.249	-33.219	-21.707	 H	1	ILE273	0.000	
11	  HB	1.855	-33.801	-19.352	 H	1	ILE273	0.000	
12	2HG1	2.333	-35.695	-21.302	 H	1	ILE273	0.000	
13	3HG1	2.117	-35.912	-19.746	 H	1	ILE273	0.000	
14	1HG2	-0.119	-33.448	-20.628	 H	1	ILE273	0.000	
15	2HG2	0.830	-32.176	-20.696	 H	1	ILE273	0.000	
16	3HG2	0.773	-33.190	-21.918	 H	1	ILE273	0.000	
17	1HD1	0.432	-36.908	-20.927	 H	1	ILE273	0.000	
18	2HD1	-0.154	-35.731	-20.035	 H	1	ILE273	0.000	
19	3HD1	0.063	-35.514	-21.594	 H	1	ILE273	0.000	
@<TRIPOS>BOND
1 1 2 1
2 1 9 1
3 2 3 1
4 2 5 1
5 2 10 1
6 3 4 2
7 5 6 1
8 5 7 1
9 5 11 1
10 6 8 1
11 6 12 1
12 6 13 1
13 7 14 1
14 7 15 1
15 7 16 1
16 8 17 1
17 8 18 1
18 8 19 1
@<TRIPOS>SUBSTRUCTURE
1	ILE273	1	RESIDUE	1 B	ILE
