# created with PyMOL 2.4.0a0
@<TRIPOS>MOLECULE
obj04
19 18 1                 
SMALL
USER_CHARGES
@<TRIPOS>ATOM
1	   N	-24.047	10.455	-14.395	N.am	1	LEU22	0.000	
2	  CA	-23.163	9.678	-15.286	C.3	1	LEU22	0.000	
3	   C	-22.662	8.393	-14.619	C.2	1	LEU22	0.000	
4	   O	-22.553	7.345	-15.267	O.2	1	LEU22	0.000	
5	  CB	-21.949	10.538	-15.744	C.3	1	LEU22	0.000	
6	  CG	-21.862	11.201	-17.147	C.3	1	LEU22	0.000	
7	 CD1	-20.584	10.800	-17.906	C.3	1	LEU22	0.000	
8	 CD2	-23.085	10.940	-18.054	C.3	1	LEU22	0.000	
9	   H	-23.781	11.264	-14.274	 H	1	LEU22	0.000	
10	  HA	-23.663	9.425	-16.078	 H	1	LEU22	0.000	
11	 HB2	-21.862	11.262	-15.104	 H	1	LEU22	0.000	
12	 HB3	-21.163	9.974	-15.670	 H	1	LEU22	0.000	
13	  HG	-21.816	12.161	-17.014	 H	1	LEU22	0.000	
14	1HD1	-20.579	11.239	-18.771	 H	1	LEU22	0.000	
15	2HD1	-19.810	11.077	-17.390	 H	1	LEU22	0.000	
16	3HD1	-20.576	9.837	-18.024	 H	1	LEU22	0.000	
17	1HD2	-22.948	11.388	-18.904	 H	1	LEU22	0.000	
18	2HD2	-23.175	9.985	-18.193	 H	1	LEU22	0.000	
19	3HD2	-23.879	11.289	-17.620	 H	1	LEU22	0.000	
@<TRIPOS>BOND
1 1 2 1
2 1 9 1
3 2 3 1
4 2 5 1
5 2 10 1
6 3 4 2
7 5 6 1
8 5 11 1
9 5 12 1
10 6 7 1
11 6 8 1
12 6 13 1
13 7 14 1
14 7 15 1
15 7 16 1
16 8 17 1
17 8 18 1
18 8 19 1
@<TRIPOS>SUBSTRUCTURE
1	LEU22	1	RESIDUE	1 B	LEU
