# created with PyMOL 2.4.0a0
@<TRIPOS>MOLECULE
obj03
22 21 1                 
SMALL
USER_CHARGES
@<TRIPOS>ATOM
1	   N	-28.481	13.740	-16.355	N.am	1	LYS20	0.000	
2	  CA	-28.462	12.415	-15.720	C.3	1	LYS20	0.000	
3	   C	-27.135	12.119	-14.991	C.2	1	LYS20	0.000	
4	   O	-26.057	12.544	-15.421	O.2	1	LYS20	0.000	
5	  CB	-28.750	11.332	-16.786	C.3	1	LYS20	0.000	
6	  CG	-30.052	11.563	-17.572	C.3	1	LYS20	0.000	
7	  CD	-30.258	10.536	-18.667	C.3	1	LYS20	0.000	
8	  CE	-31.576	10.795	-19.427	C.3	1	LYS20	0.000	
9	  NZ	-31.414	11.116	-20.875	N.4	1	LYS20	0.000	
10	   H	-28.627	13.721	-17.202	 H	1	LYS20	0.000	
11	  HA	-29.173	12.377	-15.062	 H	1	LYS20	0.000	
12	 HB2	-28.018	11.319	-17.422	 H	1	LYS20	0.000	
13	 HB3	-28.818	10.471	-16.345	 H	1	LYS20	0.000	
14	 HG2	-30.804	11.507	-16.962	 H	1	LYS20	0.000	
15	 HG3	-30.022	12.440	-17.984	 H	1	LYS20	0.000	
16	 HD2	-29.525	10.589	-19.300	 H	1	LYS20	0.000	
17	 HD3	-30.301	9.650	-18.274	 H	1	LYS20	0.000	
18	 HE2	-32.130	10.001	-19.364	 H	1	LYS20	0.000	
19	 HE3	-32.031	11.544	-19.010	 H	1	LYS20	0.000	
20	 HZ1	-32.211	11.253	-21.247	 H	1	LYS20	0.000	
21	 HZ2	-30.921	11.851	-20.970	 H	1	LYS20	0.000	
22	 HZ3	-31.012	10.441	-21.293	 H	1	LYS20	0.000	
@<TRIPOS>BOND
1 1 2 1
2 1 10 1
3 2 3 1
4 2 5 1
5 2 11 1
6 3 4 2
7 5 6 1
8 5 12 1
9 5 13 1
10 6 7 1
11 6 14 1
12 6 15 1
13 7 8 1
14 7 16 1
15 7 17 1
16 8 9 1
17 8 18 1
18 8 19 1
19 9 20 1
20 9 21 1
21 9 22 1
@<TRIPOS>SUBSTRUCTURE
1	LYS20	1	RESIDUE	1 B	LYS
