# created with PyMOL 2.4.0a0
@<TRIPOS>MOLECULE
obj08
17 16 1                 
SMALL
USER_CHARGES
@<TRIPOS>ATOM
1	   N	-28.091	-17.604	-28.162	N.am	1	MET86	0.000	
2	  CA	-28.882	-16.390	-28.282	C.3	1	MET86	0.000	
3	   C	-28.112	-15.255	-27.637	C.2	1	MET86	0.000	
4	   O	-27.726	-15.359	-26.467	O.2	1	MET86	0.000	
5	  CB	-30.234	-16.533	-27.600	C.3	1	MET86	0.000	
6	  CG	-31.258	-15.383	-27.850	C.3	1	MET86	0.000	
7	  SD	-32.429	-15.117	-26.486	S.3	1	MET86	0.000	
8	  CE	-31.228	-14.863	-25.168	C.3	1	MET86	0.000	
9	   H	-28.003	-17.876	-27.351	 H	1	MET86	0.000	
10	  HA	-29.029	-16.190	-29.220	 H	1	MET86	0.000	
11	 HB2	-30.644	-17.357	-27.907	 H	1	MET86	0.000	
12	 HB3	-30.087	-16.585	-26.642	 H	1	MET86	0.000	
13	 HG2	-30.769	-14.555	-27.985	 H	1	MET86	0.000	
14	 HG3	-31.773	-15.592	-28.645	 H	1	MET86	0.000	
15	 HE1	-31.702	-14.702	-24.337	 H	1	MET86	0.000	
16	 HE2	-30.677	-15.657	-25.087	 H	1	MET86	0.000	
17	 HE3	-30.675	-14.097	-25.388	 H	1	MET86	0.000	
@<TRIPOS>BOND
1 1 2 1
2 1 9 1
3 2 3 1
4 2 5 1
5 2 10 1
6 3 4 2
7 5 6 1
8 5 11 1
9 5 12 1
10 6 7 1
11 6 13 1
12 6 14 1
13 7 8 1
14 8 15 1
15 8 16 1
16 8 17 1
@<TRIPOS>SUBSTRUCTURE
1	MET86	1	RESIDUE	1 B	MET
