# created with PyMOL 2.4.0a0
@<TRIPOS>MOLECULE
obj09
20 20 1                 
SMALL
USER_CHARGES
@<TRIPOS>ATOM
1	   N	-27.942	-14.169	-28.391	N.am	1	PHE87	0.000	
2	  CA	-27.309	-12.938	-27.941	C.3	1	PHE87	0.000	
3	   C	-28.290	-11.786	-27.960	C.2	1	PHE87	0.000	
4	   O	-28.875	-11.494	-29.010	O.2	1	PHE87	0.000	
5	  CB	-26.180	-12.584	-28.871	C.3	1	PHE87	0.000	
6	  CG	-25.506	-11.284	-28.556	C.2	1	PHE87	0.000	
7	 CD1	-25.301	-10.889	-27.255	C.2	1	PHE87	0.000	
8	 CD2	-25.049	-10.470	-29.587	C.2	1	PHE87	0.000	
9	 CE1	-24.657	-9.716	-26.988	C.2	1	PHE87	0.000	
10	 CE2	-24.400	-9.302	-29.324	C.2	1	PHE87	0.000	
11	  CZ	-24.201	-8.922	-28.024	C.2	1	PHE87	0.000	
12	   H	-28.201	-14.125	-29.210	 H	1	PHE87	0.000	
13	  HA	-26.961	-13.048	-27.042	 H	1	PHE87	0.000	
14	 HB2	-25.509	-13.282	-28.825	 H	1	PHE87	0.000	
15	 HB3	-26.529	-12.524	-29.774	 H	1	PHE87	0.000	
16	 HD1	-25.595	-11.426	-26.555	 H	1	PHE87	0.000	
17	 HD2	-25.173	-10.736	-30.469	 H	1	PHE87	0.000	
18	 HE1	-24.523	-9.451	-26.107	 H	1	PHE87	0.000	
19	 HE2	-24.102	-8.764	-30.021	 H	1	PHE87	0.000	
20	  HZ	-23.774	-8.117	-27.837	 H	1	PHE87	0.000	
@<TRIPOS>BOND
1 1 2 1
2 1 12 1
3 2 3 1
4 2 5 1
5 2 13 1
6 3 4 2
7 5 6 1
8 5 14 1
9 5 15 1
10 6 7 2
11 6 8 1
12 7 9 1
13 7 16 1
14 8 10 2
15 8 17 1
16 9 11 2
17 9 18 1
18 10 11 1
19 10 19 1
20 11 20 1
@<TRIPOS>SUBSTRUCTURE
1	PHE87	1	RESIDUE	1 B	PHE
