# created with PyMOL 2.4.0a0
@<TRIPOS>MOLECULE
obj11
14 14 1                 
SMALL
USER_CHARGES
@<TRIPOS>ATOM
1	   N	14.278	-36.025	-31.949	N.am	1	PRO231	0.000	
2	  CA	13.940	-36.742	-33.206	C.3	1	PRO231	0.000	
3	   C	12.537	-37.423	-33.421	C.2	1	PRO231	0.000	
4	   O	11.818	-37.057	-34.312	O.2	1	PRO231	0.000	
5	  CB	14.994	-37.818	-33.230	C.3	1	PRO231	0.000	
6	  CG	15.154	-38.179	-31.768	C.3	1	PRO231	0.000	
7	  CD	14.809	-36.978	-30.956	C.3	1	PRO231	0.000	
8	  HA	14.099	-36.150	-33.958	 H	1	PRO231	0.000	
9	 HB2	14.682	-38.578	-33.744	 H	1	PRO231	0.000	
10	 HB3	15.821	-37.465	-33.594	 H	1	PRO231	0.000	
11	 HG2	14.554	-38.911	-31.554	 H	1	PRO231	0.000	
12	 HG3	16.073	-38.441	-31.603	 H	1	PRO231	0.000	
13	 HD2	14.128	-37.198	-30.302	 H	1	PRO231	0.000	
14	 HD3	15.604	-36.617	-30.534	 H	1	PRO231	0.000	
@<TRIPOS>BOND
1 1 2 1
2 1 7 1
3 2 3 1
4 2 5 1
5 2 8 1
6 3 4 2
7 5 6 1
8 5 9 1
9 5 10 1
10 6 7 1
11 6 11 1
12 6 12 1
13 7 13 1
14 7 14 1
@<TRIPOS>SUBSTRUCTURE
1	PRO231	1	RESIDUE	1 B	PRO
