# created with PyMOL 2.4.0a0
@<TRIPOS>MOLECULE
obj02
11 10 1                 
SMALL
USER_CHARGES
@<TRIPOS>ATOM
1	   N	-28.763	16.179	-17.773	N.am	1	SER19	0.000	
2	  CA	-28.511	16.210	-16.328	C.3	1	SER19	0.000	
3	   C	-28.284	14.857	-15.648	C.2	1	SER19	0.000	
4	   O	-27.890	14.829	-14.476	O.2	1	SER19	0.000	
5	  CB	-29.673	16.920	-15.619	C.3	1	SER19	0.000	
6	  OG	-29.642	16.699	-14.214	O.3	1	SER19	0.000	
7	   H	-29.029	15.418	-18.074	 H	1	SER19	0.000	
8	  HA	-27.714	16.742	-16.174	 H	1	SER19	0.000	
9	 HB2	-29.609	17.873	-15.788	 H	1	SER19	0.000	
10	 HB3	-30.510	16.579	-15.971	 H	1	SER19	0.000	
11	  HG	-28.923	16.992	-13.893	 H	1	SER19	0.000	
@<TRIPOS>BOND
1 1 2 1
2 1 7 1
3 2 3 1
4 2 5 1
5 2 8 1
6 3 4 2
7 5 6 1
8 5 9 1
9 5 10 1
10 6 11 1
@<TRIPOS>SUBSTRUCTURE
1	SER19	1	RESIDUE	1 B	SER
