# created with PyMOL 2.4.0a0
@<TRIPOS>MOLECULE
obj04
14 13 1                 
SMALL
USER_CHARGES
@<TRIPOS>ATOM
1	   N	-18.962	-4.857	-16.261	N.am	1	THR29	0.000	
2	  CA	-19.330	-5.905	-17.221	C.3	1	THR29	0.000	
3	   C	-19.224	-7.321	-16.634	C.2	1	THR29	0.000	
4	   O	-19.926	-8.227	-17.087	O.2	1	THR29	0.000	
5	  CB	-18.447	-5.845	-18.476	C.3	1	THR29	0.000	
6	 CG2	-18.061	-4.378	-18.898	C.3	1	THR29	0.000	
7	 OG1	-17.279	-6.661	-18.257	O.3	1	THR29	0.000	
8	   H	-18.191	-4.507	-16.407	 H	1	THR29	0.000	
9	  HA	-20.249	-5.766	-17.498	 H	1	THR29	0.000	
10	  HB	-18.948	-6.229	-19.213	 H	1	THR29	0.000	
11	 HG1	-16.783	-6.641	-18.935	 H	1	THR29	0.000	
12	1HG2	-17.506	-4.397	-19.693	 H	1	THR29	0.000	
13	2HG2	-18.863	-3.865	-19.086	 H	1	THR29	0.000	
14	3HG2	-17.571	-3.945	-18.181	 H	1	THR29	0.000	
@<TRIPOS>BOND
1 1 2 1
2 1 8 1
3 2 3 1
4 2 5 1
5 2 9 1
6 3 4 2
7 5 6 1
8 5 7 1
9 5 10 1
10 6 12 1
11 6 13 1
12 6 14 1
13 7 11 1
@<TRIPOS>SUBSTRUCTURE
1	THR29	1	RESIDUE	1 B	THR
