# created with PyMOL 2.4.0a0
@<TRIPOS>MOLECULE
obj10
24 25 1                 
SMALL
USER_CHARGES
@<TRIPOS>ATOM
1	   N	-13.561	-15.296	-20.618	N.am	1	TRP184	0.000	
2	  CA	-13.949	-14.699	-19.373	C.3	1	TRP184	0.000	
3	   C	-13.987	-15.684	-18.204	C.2	1	TRP184	0.000	
4	   O	-14.763	-15.483	-17.284	O.2	1	TRP184	0.000	
5	  CB	-15.255	-13.935	-19.603	C.3	1	TRP184	0.000	
6	  CG	-16.285	-14.598	-20.380	C.2	1	TRP184	0.000	
7	 CD1	-16.985	-14.146	-21.496	C.2	1	TRP184	0.000	
8	 CD2	-16.788	-15.854	-20.065	C.2	1	TRP184	0.000	
9	 CE2	-17.785	-16.179	-21.019	C.2	1	TRP184	0.000	
10	 CE3	-16.485	-16.759	-19.042	C.2	1	TRP184	0.000	
11	 NE1	-17.895	-15.116	-21.890	N.pl3	1	TRP184	0.000	
12	 CZ2	-18.470	-17.405	-20.969	C.2	1	TRP184	0.000	
13	 CZ3	-17.127	-17.940	-18.961	C.2	1	TRP184	0.000	
14	 CH2	-18.135	-18.270	-19.920	C.2	1	TRP184	0.000	
15	   H	-14.026	-15.972	-20.876	 H	1	TRP184	0.000	
16	  HA	-13.279	-14.036	-19.147	 H	1	TRP184	0.000	
17	 HB2	-15.640	-13.730	-18.737	 H	1	TRP184	0.000	
18	 HB3	-15.042	-13.107	-20.061	 H	1	TRP184	0.000	
19	 HD1	-16.847	-13.332	-21.924	 H	1	TRP184	0.000	
20	 HE1	-18.426	-15.067	-22.564	 H	1	TRP184	0.000	
21	 HE3	-15.828	-16.548	-18.418	 H	1	TRP184	0.000	
22	 HZ2	-19.132	-17.619	-21.585	 H	1	TRP184	0.000	
23	 HZ3	-16.914	-18.541	-18.284	 H	1	TRP184	0.000	
24	 HH2	-18.567	-19.091	-19.858	 H	1	TRP184	0.000	
@<TRIPOS>BOND
1 1 2 1
2 1 15 1
3 2 3 1
4 2 5 1
5 2 16 1
6 3 4 2
7 5 6 1
8 5 17 1
9 5 18 1
10 6 7 2
11 6 8 1
12 7 11 1
13 7 19 1
14 8 9 2
15 8 10 1
16 9 12 1
17 10 13 2
18 10 21 1
19 9 11 1
20 11 20 1
21 12 14 2
22 12 22 1
23 13 14 1
24 13 23 1
25 14 24 1
@<TRIPOS>SUBSTRUCTURE
1	TRP184	1	RESIDUE	1 B	TRP
