# created with PyMOL 2.4.0a0
@<TRIPOS>MOLECULE
obj16
21 21 1                 
SMALL
USER_CHARGES
@<TRIPOS>ATOM
1	   N	-19.154	-25.695	-33.487	N.am	1	TYR174	0.000	
2	  CA	-19.337	-25.935	-32.068	C.3	1	TYR174	0.000	
3	   C	-18.231	-25.328	-31.238	C.2	1	TYR174	0.000	
4	   O	-18.510	-24.792	-30.162	O.2	1	TYR174	0.000	
5	  CB	-19.415	-27.419	-31.815	C.3	1	TYR174	0.000	
6	  CG	-19.355	-27.779	-30.401	C.2	1	TYR174	0.000	
7	 CD1	-20.399	-27.512	-29.535	C.2	1	TYR174	0.000	
8	 CD2	-18.272	-28.456	-29.922	C.2	1	TYR174	0.000	
9	 CE1	-20.321	-27.920	-28.165	C.2	1	TYR174	0.000	
10	 CE2	-18.184	-28.853	-28.606	C.2	1	TYR174	0.000	
11	  CZ	-19.190	-28.604	-27.739	C.2	1	TYR174	0.000	
12	  OH	-18.956	-29.049	-26.474	O.3	1	TYR174	0.000	
13	   H	-19.188	-26.407	-33.968	 H	1	TYR174	0.000	
14	  HA	-20.176	-25.538	-31.786	 H	1	TYR174	0.000	
15	 HB2	-20.253	-27.753	-32.171	 H	1	TYR174	0.000	
16	 HB3	-18.672	-27.852	-32.263	 H	1	TYR174	0.000	
17	 HD1	-21.153	-27.063	-29.843	 H	1	TYR174	0.000	
18	 HD2	-17.571	-28.652	-30.500	 H	1	TYR174	0.000	
19	 HE1	-21.016	-27.738	-27.575	 H	1	TYR174	0.000	
20	 HE2	-17.427	-29.307	-28.313	 H	1	TYR174	0.000	
21	  HH	-19.602	-28.850	-25.975	 H	1	TYR174	0.000	
@<TRIPOS>BOND
1 1 2 1
2 1 13 1
3 2 3 1
4 2 5 1
5 2 14 1
6 3 4 2
7 5 6 1
8 5 15 1
9 5 16 1
10 6 7 2
11 6 8 1
12 7 9 1
13 7 17 1
14 8 10 2
15 8 18 1
16 9 11 2
17 9 19 1
18 10 11 1
19 10 20 1
20 11 12 1
21 12 21 1
@<TRIPOS>SUBSTRUCTURE
1	TYR174	1	RESIDUE	1 B	TYR
